<?xml version="1.0" encoding="UTF-8"?>

<!-- generated on 2026-07-19 00:42:50.840629 by Eclipse SUMO randomTrips.py v1.27.1
<configuration>
    <net-file value="net_tls.xml"/>
    <route-file value="routes_e6.rou.xml"/>
    <seed value="1"/>
    <end value="120.0"/>
    <period value="0.8"/>
</configuration>
-->

<!-- generated on 2026-07-19T00:42:50.821972+10:00 by Eclipse SUMO duarouter 1.27.1
<duarouterConfiguration xmlns:xsi="http://www.w3.org/2001/XMLSchema-instance" xsi:noNamespaceSchemaLocation="http://sumo.dlr.de/xsd/duarouterConfiguration.xsd">

    <input>
        <net-file value="net_tls.xml"/>
        <route-files value="trips.trips.xml"/>
    </input>

    <output>
        <output-file value="routes_e6.rou.xml"/>
        <alternatives-output value="NUL"/>
    </output>

    <processing>
        <routing-threads value="8"/>
    </processing>

    <time>
        <begin value="0"/>
        <end value="120.0"/>
    </time>

    <report>
        <no-warnings value="true"/>
        <ignore-errors value="true"/>
        <no-step-log value="true"/>
    </report>

</duarouterConfiguration>
-->

<routes xmlns:xsi="http://www.w3.org/2001/XMLSchema-instance" xsi:noNamespaceSchemaLocation="http://sumo.dlr.de/xsd/routes_file.xsd">
    <vehicle id="0" depart="0.00">
        <route edges="A1A2 A2B2 B2C2 C2C1 C1C0"/>
    </vehicle>
    <vehicle id="1" depart="0.80">
        <route edges="C0C1 C1B1 B1A1 A1A2 A2B2"/>
    </vehicle>
    <vehicle id="2" depart="1.60">
        <route edges="B1B0 B0B1 B1A1"/>
    </vehicle>
    <vehicle id="3" depart="2.40">
        <route edges="B2B1 B1B0 B0C0 C0C1"/>
    </vehicle>
    <vehicle id="4" depart="3.20">
        <route edges="A1A0 A0B0 B0A0 A0A1"/>
    </vehicle>
    <vehicle id="5" depart="4.00">
        <route edges="C1C0 C0B0 B0B1 B1A1"/>
    </vehicle>
    <vehicle id="6" depart="4.80">
        <route edges="C0C1 C1B1 B1B0 B0A0 A0A1"/>
    </vehicle>
    <vehicle id="7" depart="5.60">
        <route edges="B1A1 A1B1 B1C1 C1C0 C0B0"/>
    </vehicle>
    <vehicle id="8" depart="6.40">
        <route edges="A2A1 A1B1 B1C1 C1C2 C2B2"/>
    </vehicle>
    <vehicle id="9" depart="7.20">
        <route edges="C1C2 C2B2 B2B1 B1B0 B0A0 A0A1"/>
    </vehicle>
    <vehicle id="10" depart="8.00">
        <route edges="A0A1 A1B1 B1B2"/>
    </vehicle>
    <vehicle id="11" depart="8.80">
        <route edges="C2B2 B2B1 B1B0 B0C0"/>
    </vehicle>
    <vehicle id="12" depart="9.60">
        <route edges="A2A1 A1B1 B1A1"/>
    </vehicle>
    <vehicle id="13" depart="10.40">
        <route edges="A0A1 A1B1 B1B2 B2A2 A2A1"/>
    </vehicle>
    <vehicle id="14" depart="11.20">
        <route edges="B1A1 A1B1 B1B0"/>
    </vehicle>
    <vehicle id="15" depart="12.00">
        <route edges="A2A1"/>
    </vehicle>
    <vehicle id="16" depart="12.80">
        <route edges="A2A1 A1B1 B1B0"/>
    </vehicle>
    <vehicle id="17" depart="13.60">
        <route edges="A2B2 B2B1 B1B0 B0A0 A0A1"/>
    </vehicle>
    <vehicle id="18" depart="14.40">
        <route edges="C1C0 C0B0 B0B1 B1C1"/>
    </vehicle>
    <vehicle id="19" depart="15.20">
        <route edges="B2B1 B1A1 A1B1"/>
    </vehicle>
    <vehicle id="20" depart="16.00">
        <route edges="C2C1 C1C0"/>
    </vehicle>
    <vehicle id="21" depart="16.80">
        <route edges="A1A0 A0B0 B0A0"/>
    </vehicle>
    <vehicle id="22" depart="17.60">
        <route edges="C0B0"/>
    </vehicle>
    <vehicle id="23" depart="18.40">
        <route edges="C2B2 B2B1 B1A1"/>
    </vehicle>
    <vehicle id="24" depart="19.20">
        <route edges="C1B1 B1B2 B2C2"/>
    </vehicle>
    <vehicle id="25" depart="20.00">
        <route edges="B0A0 A0A1 A1B1 B1B2 B2A2"/>
    </vehicle>
    <vehicle id="26" depart="20.80">
        <route edges="C1C2 C2B2 B2B1 B1C1 C1C0"/>
    </vehicle>
    <vehicle id="27" depart="21.60">
        <route edges="B1B2 B2A2"/>
    </vehicle>
    <vehicle id="28" depart="22.40">
        <route edges="A0A1 A1B1 B1B2 B2A2 A2A1"/>
    </vehicle>
    <vehicle id="29" depart="23.20">
        <route edges="C1B1 B1B0 B0C0"/>
    </vehicle>
    <vehicle id="30" depart="24.00">
        <route edges="A1B1 B1C1"/>
    </vehicle>
    <vehicle id="31" depart="24.80">
        <route edges="B2C2"/>
    </vehicle>
    <vehicle id="32" depart="25.60">
        <route edges="B0B1 B1A1"/>
    </vehicle>
    <vehicle id="33" depart="26.40">
        <route edges="B1B2 B2B1 B1B0 B0C0 C0C1"/>
    </vehicle>
    <vehicle id="34" depart="27.20">
        <route edges="B1B2 B2B1 B1B0 B0C0"/>
    </vehicle>
    <vehicle id="35" depart="28.00">
        <route edges="B1B0 B0A0 A0A1"/>
    </vehicle>
    <vehicle id="36" depart="28.80">
        <route edges="A0B0 B0B1 B1B2 B2C2"/>
    </vehicle>
    <vehicle id="37" depart="29.60">
        <route edges="C2C1 C1B1 B1B2 B2A2"/>
    </vehicle>
    <vehicle id="38" depart="30.40">
        <route edges="B0C0 C0C1 C1B1 B1A1 A1B1"/>
    </vehicle>
    <vehicle id="39" depart="31.20">
        <route edges="B1B2 B2C2 C2C1"/>
    </vehicle>
    <vehicle id="40" depart="32.00">
        <route edges="C0C1 C1B1 B1B2"/>
    </vehicle>
    <vehicle id="41" depart="32.80">
        <route edges="C1C0 C0B0 B0B1 B1B2 B2A2 A2A1"/>
    </vehicle>
    <vehicle id="42" depart="33.60">
        <route edges="B1B2 B2B1 B1C1 C1C2 C2B2"/>
    </vehicle>
    <vehicle id="43" depart="34.40">
        <route edges="B1C1 C1B1 B1B0"/>
    </vehicle>
    <vehicle id="44" depart="35.20">
        <route edges="A2B2 B2B1 B1C1"/>
    </vehicle>
    <vehicle id="45" depart="36.00">
        <route edges="C2B2 B2B1 B1B0 B0A0 A0A1"/>
    </vehicle>
    <vehicle id="46" depart="36.80">
        <route edges="C0C1 C1B1"/>
    </vehicle>
    <vehicle id="47" depart="37.60">
        <route edges="C1C2 C2B2 B2B1 B1C1 C1C0 C0B0"/>
    </vehicle>
    <vehicle id="48" depart="38.40">
        <route edges="C1B1 B1B2"/>
    </vehicle>
    <vehicle id="49" depart="39.20">
        <route edges="B1C1 C1B1 B1A1"/>
    </vehicle>
    <vehicle id="50" depart="40.00">
        <route edges="A0B0 B0B1 B1C1 C1C0"/>
    </vehicle>
    <vehicle id="51" depart="40.80">
        <route edges="B1C1 C1B1 B1A1 A1B1"/>
    </vehicle>
    <vehicle id="52" depart="41.60">
        <route edges="B1B2 B2B1 B1B0"/>
    </vehicle>
    <vehicle id="53" depart="42.40">
        <route edges="B0B1"/>
    </vehicle>
    <vehicle id="54" depart="43.20">
        <route edges="B1B2 B2A2"/>
    </vehicle>
    <vehicle id="55" depart="44.00">
        <route edges="B2A2 A2A1 A1B1 B1A1"/>
    </vehicle>
    <vehicle id="56" depart="44.80">
        <route edges="A0A1 A1B1 B1B2 B2A2 A2A1"/>
    </vehicle>
    <vehicle id="57" depart="45.60">
        <route edges="A1B1 B1B2 B2A2"/>
    </vehicle>
    <vehicle id="58" depart="46.40">
        <route edges="C1C0 C0B0 B0B1 B1C1 C1B1"/>
    </vehicle>
    <vehicle id="59" depart="47.20">
        <route edges="C1B1"/>
    </vehicle>
    <vehicle id="60" depart="48.00">
        <route edges="A2B2 B2C2 C2C1 C1C0"/>
    </vehicle>
    <vehicle id="61" depart="48.80">
        <route edges="B2C2 C2C1 C1B1 B1A1 A1A0 A0B0"/>
    </vehicle>
    <vehicle id="62" depart="49.60">
        <route edges="A0A1"/>
    </vehicle>
    <vehicle id="63" depart="50.40">
        <route edges="C0C1 C1C2 C2B2 B2A2 A2A1"/>
    </vehicle>
    <vehicle id="64" depart="51.20">
        <route edges="A1A0 A0B0 B0B1 B1B2 B2A2"/>
    </vehicle>
    <vehicle id="65" depart="52.00">
        <route edges="B0B1 B1A1 A1A0 A0B0"/>
    </vehicle>
    <vehicle id="66" depart="52.80">
        <route edges="A1A2 A2B2 B2B1 B1B2"/>
    </vehicle>
    <vehicle id="67" depart="53.60">
        <route edges="A1B1 B1A1 A1A2 A2B2"/>
    </vehicle>
    <vehicle id="68" depart="54.40">
        <route edges="C0B0 B0B1 B1A1"/>
    </vehicle>
    <vehicle id="69" depart="55.20">
        <route edges="B0A0 A0A1 A1B1 B1B0"/>
    </vehicle>
    <vehicle id="70" depart="56.00">
        <route edges="A0A1 A1B1 B1B0 B0C0"/>
    </vehicle>
    <vehicle id="71" depart="56.80">
        <route edges="B1A1 A1B1"/>
    </vehicle>
    <vehicle id="72" depart="57.60">
        <route edges="A1A0 A0B0 B0C0 C0C1 C1C2"/>
    </vehicle>
    <vehicle id="73" depart="58.40">
        <route edges="B1B2 B2A2 A2A1"/>
    </vehicle>
    <vehicle id="74" depart="59.20">
        <route edges="B2A2 A2A1 A1B1 B1C1 C1B1"/>
    </vehicle>
    <vehicle id="75" depart="60.00">
        <route edges="A0A1"/>
    </vehicle>
    <vehicle id="76" depart="60.80">
        <route edges="A1A2 A2B2 B2C2 C2C1 C1C0 C0B0"/>
    </vehicle>
    <vehicle id="77" depart="61.60">
        <route edges="A1A2 A2B2 B2C2"/>
    </vehicle>
    <vehicle id="78" depart="62.40">
        <route edges="B2C2 C2C1 C1B1 B1C1"/>
    </vehicle>
    <vehicle id="79" depart="63.20">
        <route edges="A2A1 A1B1 B1B2 B2C2 C2C1"/>
    </vehicle>
    <vehicle id="80" depart="64.00">
        <route edges="C1B1 B1B2"/>
    </vehicle>
    <vehicle id="81" depart="64.80">
        <route edges="A2A1 A1A2 A2B2 B2B1"/>
    </vehicle>
    <vehicle id="82" depart="65.60">
        <route edges="B0C0 C0C1 C1B1 B1C1"/>
    </vehicle>
    <vehicle id="83" depart="66.40">
        <route edges="B0A0 A0A1 A1A2 A2B2 B2B1"/>
    </vehicle>
    <vehicle id="84" depart="67.20">
        <route edges="A0B0 B0A0"/>
    </vehicle>
    <vehicle id="85" depart="68.00">
        <route edges="C2C1 C1C2"/>
    </vehicle>
    <vehicle id="86" depart="68.80">
        <route edges="B0A0 A0A1 A1B1 B1C1 C1C0"/>
    </vehicle>
    <vehicle id="87" depart="69.60">
        <route edges="B0A0 A0A1 A1B1 B1C1 C1C2 C2B2"/>
    </vehicle>
    <vehicle id="88" depart="70.40">
        <route edges="C0B0 B0C0"/>
    </vehicle>
    <vehicle id="89" depart="71.20">
        <route edges="A2B2 B2B1 B1B0 B0A0 A0A1"/>
    </vehicle>
    <vehicle id="90" depart="72.00">
        <route edges="C1C2 C2B2 B2B1 B1B0 B0A0 A0A1"/>
    </vehicle>
    <vehicle id="91" depart="72.80">
        <route edges="C1B1 B1B2 B2C2 C2C1"/>
    </vehicle>
    <vehicle id="92" depart="73.60">
        <route edges="B1C1 C1B1 B1A1 A1B1"/>
    </vehicle>
    <vehicle id="93" depart="74.40">
        <route edges="C1C0 C0B0 B0B1 B1B2 B2C2 C2C1"/>
    </vehicle>
    <vehicle id="94" depart="75.20">
        <route edges="B2C2 C2C1 C1B1 B1B2"/>
    </vehicle>
    <vehicle id="95" depart="76.00">
        <route edges="B0C0 C0C1 C1C0 C0B0 B0B1"/>
    </vehicle>
    <vehicle id="96" depart="76.80">
        <route edges="A1B1 B1B2 B2C2"/>
    </vehicle>
    <vehicle id="97" depart="77.60">
        <route edges="B1A1 A1B1"/>
    </vehicle>
    <vehicle id="98" depart="78.40">
        <route edges="A1A0 A0B0 B0B1 B1B2 B2B1"/>
    </vehicle>
    <vehicle id="99" depart="79.20">
        <route edges="B0A0 A0A1 A1B1 B1B0"/>
    </vehicle>
    <vehicle id="100" depart="80.00">
        <route edges="B0A0 A0A1 A1B1 B1C1 C1C0"/>
    </vehicle>
    <vehicle id="101" depart="80.80">
        <route edges="C1C2 C2B2 B2B1 B1B0 B0A0 A0A1"/>
    </vehicle>
    <vehicle id="102" depart="81.60">
        <route edges="A1B1 B1B0 B0A0"/>
    </vehicle>
    <vehicle id="103" depart="82.40">
        <route edges="C2C1 C1B1 B1B0 B0C0 C0C1"/>
    </vehicle>
    <vehicle id="104" depart="83.20">
        <route edges="B0B1 B1B2 B2A2 A2A1"/>
    </vehicle>
    <vehicle id="105" depart="84.00">
        <route edges="B2C2 C2C1 C1C0"/>
    </vehicle>
    <vehicle id="106" depart="84.80">
        <route edges="C2B2 B2B1 B1B0 B0B1"/>
    </vehicle>
    <vehicle id="107" depart="85.60">
        <route edges="C1C2 C2B2 B2C2"/>
    </vehicle>
    <vehicle id="108" depart="86.40">
        <route edges="B1B0 B0B1 B1B2 B2C2 C2C1"/>
    </vehicle>
    <vehicle id="109" depart="87.20">
        <route edges="A2A1 A1B1 B1C1 C1C0 C0B0"/>
    </vehicle>
    <vehicle id="110" depart="88.00">
        <route edges="A1A0 A0B0 B0A0 A0A1 A1B1"/>
    </vehicle>
    <vehicle id="111" depart="88.80">
        <route edges="C1C2 C2B2 B2A2 A2A1"/>
    </vehicle>
    <vehicle id="112" depart="89.60">
        <route edges="C0C1 C1C2 C2B2 B2A2"/>
    </vehicle>
    <vehicle id="113" depart="90.40">
        <route edges="C1C0 C0B0 B0B1"/>
    </vehicle>
    <vehicle id="114" depart="91.20">
        <route edges="B0B1 B1A1 A1A2 A2B2"/>
    </vehicle>
    <vehicle id="115" depart="92.00">
        <route edges="C1C0 C0B0 B0B1 B1B2 B2A2"/>
    </vehicle>
    <vehicle id="116" depart="92.80">
        <route edges="C2B2 B2B1 B1C1 C1C2"/>
    </vehicle>
    <vehicle id="117" depart="93.60">
        <route edges="A1A2 A2B2 B2B1 B1C1"/>
    </vehicle>
    <vehicle id="118" depart="94.40">
        <route edges="A1A0 A0B0 B0A0 A0A1"/>
    </vehicle>
    <vehicle id="119" depart="95.20">
        <route edges="A0B0 B0B1 B1C1 C1C0"/>
    </vehicle>
    <vehicle id="120" depart="96.00">
        <route edges="C0C1 C1B1"/>
    </vehicle>
    <vehicle id="121" depart="96.80">
        <route edges="B0B1 B1B2 B2A2"/>
    </vehicle>
    <vehicle id="122" depart="97.60">
        <route edges="C0C1 C1B1 B1B0 B0C0"/>
    </vehicle>
    <vehicle id="123" depart="98.40">
        <route edges="B1C1 C1C2 C2B2 B2A2 A2A1"/>
    </vehicle>
    <vehicle id="124" depart="99.20">
        <route edges="A0B0 B0B1 B1A1 A1A2 A2B2"/>
    </vehicle>
    <vehicle id="125" depart="100.00">
        <route edges="C1C2 C2B2 B2B1 B1C1"/>
    </vehicle>
    <vehicle id="126" depart="100.80">
        <route edges="C2B2 B2B1 B1A1"/>
    </vehicle>
    <vehicle id="127" depart="101.60">
        <route edges="A2B2 B2B1 B1B0 B0C0 C0C1"/>
    </vehicle>
    <vehicle id="128" depart="102.40">
        <route edges="C1B1 B1B0 B0A0 A0A1"/>
    </vehicle>
    <vehicle id="129" depart="103.20">
        <route edges="B2C2 C2C1 C1B1 B1A1 A1A0"/>
    </vehicle>
    <vehicle id="130" depart="104.00">
        <route edges="A1A0 A0B0 B0C0 C0C1 C1C2"/>
    </vehicle>
    <vehicle id="131" depart="104.80">
        <route edges="A0A1 A1B1 B1B2 B2A2 A2A1"/>
    </vehicle>
    <vehicle id="132" depart="105.60">
        <route edges="C2C1 C1B1 B1A1"/>
    </vehicle>
    <vehicle id="133" depart="106.40">
        <route edges="A1A0 A0B0 B0A0 A0A1 A1B1"/>
    </vehicle>
    <vehicle id="134" depart="107.20">
        <route edges="A2A1 A1B1 B1C1 C1C0 C0B0"/>
    </vehicle>
    <vehicle id="135" depart="108.00">
        <route edges="A1A0 A0B0 B0C0 C0C1 C1C2"/>
    </vehicle>
    <vehicle id="136" depart="108.80">
        <route edges="B0C0 C0C1 C1B1 B1B2 B2C2 C2C1"/>
    </vehicle>
    <vehicle id="137" depart="109.60">
        <route edges="C1C2 C2B2 B2B1 B1B0 B0A0"/>
    </vehicle>
    <vehicle id="138" depart="110.40">
        <route edges="A2B2 B2B1 B1B0"/>
    </vehicle>
    <vehicle id="139" depart="111.20">
        <route edges="A1A0 A0B0 B0B1 B1B2 B2B1"/>
    </vehicle>
    <vehicle id="140" depart="112.00">
        <route edges="A0A1"/>
    </vehicle>
    <vehicle id="141" depart="112.80">
        <route edges="C2C1 C1C0 C0B0 B0A0"/>
    </vehicle>
    <vehicle id="142" depart="113.60">
        <route edges="B2A2 A2A1 A1B1 B1A1"/>
    </vehicle>
    <vehicle id="143" depart="114.40">
        <route edges="B0A0 A0A1 A1A0 A0B0"/>
    </vehicle>
    <vehicle id="144" depart="115.20">
        <route edges="C1C2 C2B2 B2C2 C2C1"/>
    </vehicle>
    <vehicle id="145" depart="116.00">
        <route edges="C2C1 C1B1 B1A1 A1A0"/>
    </vehicle>
    <vehicle id="146" depart="116.80">
        <route edges="A2A1 A1B1 B1B2 B2A2"/>
    </vehicle>
    <vehicle id="147" depart="117.60">
        <route edges="C2C1 C1B1 B1C1"/>
    </vehicle>
    <vehicle id="148" depart="118.40">
        <route edges="B2C2 C2C1 C1B1 B1B2 B2B1"/>
    </vehicle>
    <vehicle id="149" depart="119.20">
        <route edges="A2B2 B2B1 B1B2"/>
    </vehicle>
</routes>
